MODEL 1
REMARK VINA RESULT:   -13.247      0.000      0.000
REMARK INTER + INTRA:         -19.135
REMARK INTER:                 -18.668
REMARK INTRA:                  -0.467
REMARK UNBOUND:                -0.467
REMARK Flexibility Score: inf
REMARK Active torsions [ 7 ] -> [ 7 ]
ROOT
ATOM      1  C1  LIG L   1      15.835  54.720  12.393  1.00  0.00     0.038 A 
ATOM      2  C2  LIG L   1      16.911  54.559  11.407  1.00  0.00    -0.029 A 
ATOM      3  C3  LIG L   1      17.895  53.540  11.636  1.00  0.00     0.007 A 
ATOM      4  C4  LIG L   1      17.822  52.698  12.804  1.00  0.00     0.024 A 
ATOM      5  C5  LIG L   1      16.777  52.849  13.762  1.00  0.00     0.035 A 
ATOM      6  C6  LIG L   1      15.778  53.882  13.536  1.00  0.00     0.047 A 
ATOM      7  C7  LIG L   1      17.034  55.429  10.134  1.00  0.00     0.045 C 
ENDROOT
BRANCH    1    8
ATOM      8  N1  LIG L   1      14.850  55.695  12.226  1.00  0.00    -0.283 N 
ATOM      9  H1  LIG L   1      13.975  55.444  11.851  1.00  0.00     0.155 HD
BRANCH    8   10
ATOM     10  C8  LIG L   1      15.091  57.014  12.581  1.00  0.00     0.220 A 
ATOM     11  C9  LIG L   1      14.254  59.239  12.727  1.00  0.00     0.077 A 
ATOM     12 C10  LIG L   1      15.505  59.700  13.257  1.00  0.00     0.048 A 
ATOM     13  N2  LIG L   1      14.095  57.908  12.410  1.00  0.00    -0.214 NA
ATOM     14 C11  LIG L   1      16.530  58.743  13.427  1.00  0.00     0.116 A 
ATOM     15  N3  LIG L   1      16.310  57.425  13.088  1.00  0.00    -0.223 NA
BRANCH   11   16
ATOM     16 C12  LIG L   1      13.076  60.131  12.486  1.00  0.00     0.019 A 
ATOM     17 C13  LIG L   1      11.797  62.282  12.807  1.00  0.00     0.020 A 
ATOM     18 C14  LIG L   1      12.956  61.460  13.072  1.00  0.00     0.013 A 
ATOM     19 C15  LIG L   1      10.766  61.752  11.954  1.00  0.00     0.111 A 
ATOM     20  N4  LIG L   1      10.893  60.472  11.395  1.00  0.00    -0.263 NA
ATOM     21 C16  LIG L   1      11.997  59.659  11.630  1.00  0.00     0.120 A 
ENDBRANCH   11   16
ENDBRANCH    8   10
ENDBRANCH    1    8
BRANCH    5   22
ATOM     22  N5  LIG L   1      16.766  51.963  14.900  1.00  0.00    -0.281 N 
ATOM     23 C17  LIG L   1      15.734  51.741  15.796  1.00  0.00     0.248 C 
ATOM     24  H2  LIG L   1      17.594  51.454  15.058  1.00  0.00     0.155 HD
ATOM     25  O1  LIG L   1      14.731  52.434  15.881  1.00  0.00    -0.270 OA
BRANCH   23   26
ATOM     26 C18  LIG L   1      15.837  50.592  16.746  1.00  0.00     0.037 A 
ATOM     27 C19  LIG L   1      17.109  49.897  16.964  1.00  0.00     0.013 A 
ATOM     28 C20  LIG L   1      14.651  50.156  17.451  1.00  0.00     0.013 A 
ATOM     29 C21  LIG L   1      17.177  48.781  17.872  1.00  0.00     0.002 A 
ATOM     30 C22  LIG L   1      14.721  49.062  18.342  1.00  0.00     0.002 A 
ATOM     31 C23  LIG L   1      15.969  48.352  18.572  1.00  0.00    -0.064 A 
BRANCH   31   32
ATOM     32 C24  LIG L   1      15.944  47.157  19.544  1.00  0.00    -0.043 C 
BRANCH   32   33
ATOM     33  N6  LIG L   1      17.212  46.835  20.264  1.00  0.00     0.380 N 
ATOM     34 C25  LIG L   1      17.477  47.849  21.350  1.00  0.00    -0.097 C 
ATOM     35 C26  LIG L   1      17.194  45.423  20.856  1.00  0.00    -0.097 C 
ATOM     36  H3  LIG L   1      17.965  46.874  19.578  1.00  0.00    -0.082 HD
ATOM     37 C27  LIG L   1      18.804  47.544  22.099  1.00  0.00    -0.098 C 
ATOM     38 C28  LIG L   1      18.537  45.095  21.586  1.00  0.00    -0.098 C 
ATOM     39  N7  LIG L   1      18.788  46.136  22.678  1.00  0.00     0.375 N 
ATOM     40 C29  LIG L   1      20.020  45.797  23.405  1.00  0.00    -0.096 C 
ATOM     41  H4  LIG L   1      18.021  46.121  23.350  1.00  0.00    -0.082 HD
ENDBRANCH   32   33
ENDBRANCH   31   32
ENDBRANCH   23   26
ENDBRANCH    5   22
TORSDOF 7
ENDMDL
MODEL 2
REMARK VINA RESULT:   -11.278      2.978     12.407
REMARK INTER + INTRA:         -16.360
REMARK INTER:                 -15.415
REMARK INTRA:                  -0.945
REMARK UNBOUND:                -0.467
REMARK Flexibility Score: inf
REMARK Active torsions [ 7 ] -> [ 7 ]
ROOT
ATOM      1  C1  LIG L   1      16.848  48.706  17.617  1.00  0.00     0.038 A 
ATOM      2  C2  LIG L   1      15.522  48.418  18.176  1.00  0.00    -0.029 A 
ATOM      3  C3  LIG L   1      14.459  49.345  17.911  1.00  0.00     0.007 A 
ATOM      4  C4  LIG L   1      14.693  50.524  17.114  1.00  0.00     0.024 A 
ATOM      5  C5  LIG L   1      15.979  50.804  16.566  1.00  0.00     0.035 A 
ATOM      6  C6  LIG L   1      17.061  49.869  16.834  1.00  0.00     0.047 A 
ATOM      7  C7  LIG L   1      15.213  47.168  19.032  1.00  0.00     0.045 C 
ENDROOT
BRANCH    1    8
ATOM      8  N1  LIG L   1      17.923  47.843  17.842  1.00  0.00    -0.283 N 
ATOM      9  H1  LIG L   1      17.979  46.995  17.344  1.00  0.00     0.155 HD
BRANCH    8   10
ATOM     10  C8  LIG L   1      18.911  48.166  18.759  1.00  0.00     0.220 A 
ATOM     11  C9  LIG L   1      20.921  49.365  19.207  1.00  0.00     0.077 A 
ATOM     12 C10  LIG L   1      20.955  48.854  20.547  1.00  0.00     0.048 A 
ATOM     13  N2  LIG L   1      19.895  49.001  18.363  1.00  0.00    -0.214 NA
ATOM     14 C11  LIG L   1      19.912  47.983  20.936  1.00  0.00     0.116 A 
ATOM     15  N3  LIG L   1      18.915  47.655  20.044  1.00  0.00    -0.223 NA
BRANCH   11   16
ATOM     16 C12  LIG L   1      21.953  50.292  18.646  1.00  0.00     0.019 A 
ATOM     17 C13  LIG L   1      24.166  50.763  17.530  1.00  0.00     0.020 A 
ATOM     18 C14  LIG L   1      23.202  49.825  18.058  1.00  0.00     0.013 A 
ATOM     19 C15  LIG L   1      23.861  52.168  17.602  1.00  0.00     0.111 A 
ATOM     20  N4  LIG L   1      22.655  52.606  18.168  1.00  0.00    -0.263 NA
ATOM     21 C16  LIG L   1      21.707  51.726  18.683  1.00  0.00     0.120 A 
ENDBRANCH   11   16
ENDBRANCH    8   10
ENDBRANCH    1    8
BRANCH    5   22
ATOM     22  N5  LIG L   1      16.133  51.998  15.772  1.00  0.00    -0.281 N 
ATOM     23 C17  LIG L   1      15.651  52.239  14.496  1.00  0.00     0.248 C 
ATOM     24  H2  LIG L   1      16.643  52.730  16.188  1.00  0.00     0.155 HD
ATOM     25  O1  LIG L   1      15.194  51.381  13.755  1.00  0.00    -0.270 OA
BRANCH   23   26
ATOM     26 C18  LIG L   1      15.697  53.633  13.958  1.00  0.00     0.037 A 
ATOM     27 C19  LIG L   1      16.963  54.362  13.844  1.00  0.00     0.013 A 
ATOM     28 C20  LIG L   1      14.461  54.270  13.557  1.00  0.00     0.013 A 
ATOM     29 C21  LIG L   1      16.977  55.712  13.338  1.00  0.00     0.002 A 
ATOM     30 C22  LIG L   1      14.479  55.593  13.061  1.00  0.00     0.002 A 
ATOM     31 C23  LIG L   1      15.720  56.341  12.942  1.00  0.00    -0.064 A 
BRANCH   31   32
ATOM     32 C24  LIG L   1      15.638  57.785  12.412  1.00  0.00    -0.043 C 
BRANCH   32   33
ATOM     33  N6  LIG L   1      14.370  58.534  12.661  1.00  0.00     0.380 N 
ATOM     34 C25  LIG L   1      14.666  59.921  13.177  1.00  0.00    -0.097 C 
ATOM     35 C26  LIG L   1      13.494  58.615  11.408  1.00  0.00    -0.097 C 
ATOM     36  H3  LIG L   1      13.850  58.017  13.370  1.00  0.00    -0.082 HD
ATOM     37 C27  LIG L   1      13.359  60.711  13.463  1.00  0.00    -0.098 C 
ATOM     38 C28  LIG L   1      12.162  59.382  11.692  1.00  0.00    -0.098 C 
ATOM     39  N7  LIG L   1      12.486  60.782  12.218  1.00  0.00     0.375 N 
ATOM     40 C29  LIG L   1      11.236  61.526  12.432  1.00  0.00    -0.096 C 
ATOM     41  H4  LIG L   1      13.032  61.292  11.524  1.00  0.00    -0.082 HD
ENDBRANCH   32   33
ENDBRANCH   31   32
ENDBRANCH   23   26
ENDBRANCH    5   22
TORSDOF 7
ENDMDL
MODEL 3
REMARK VINA RESULT:   -11.121      3.783     12.327
REMARK INTER + INTRA:         -16.140
REMARK INTER:                 -15.915
REMARK INTRA:                  -0.224
REMARK UNBOUND:                -0.467
REMARK Flexibility Score: inf
REMARK Active torsions [ 7 ] -> [ 7 ]
ROOT
ATOM      1  C1  LIG L   1      18.115  48.613  18.936  1.00  0.00     0.038 A 
ATOM      2  C2  LIG L   1      17.098  47.566  19.090  1.00  0.00    -0.029 A 
ATOM      3  C3  LIG L   1      15.972  47.578  18.200  1.00  0.00     0.007 A 
ATOM      4  C4  LIG L   1      15.851  48.592  17.182  1.00  0.00     0.024 A 
ATOM      5  C5  LIG L   1      16.839  49.607  17.027  1.00  0.00     0.035 A 
ATOM      6  C6  LIG L   1      17.981  49.602  17.928  1.00  0.00     0.047 A 
ATOM      7  C7  LIG L   1      17.179  46.452  20.159  1.00  0.00     0.045 C 
ENDROOT
BRANCH    1    8
ATOM      8  N1  LIG L   1      19.232  48.656  19.774  1.00  0.00    -0.283 N 
ATOM      9  H1  LIG L   1      19.126  48.937  20.712  1.00  0.00     0.155 HD
BRANCH    8   10
ATOM     10  C8  LIG L   1      20.487  48.307  19.300  1.00  0.00     0.220 A 
ATOM     11  C9  LIG L   1      22.627  49.040  18.553  1.00  0.00     0.077 A 
ATOM     12 C10  LIG L   1      23.037  47.684  18.323  1.00  0.00     0.048 A 
ATOM     13  N2  LIG L   1      21.363  49.298  19.036  1.00  0.00    -0.214 NA
ATOM     14 C11  LIG L   1      22.101  46.665  18.609  1.00  0.00     0.116 A 
ATOM     15  N3  LIG L   1      20.850  46.989  19.088  1.00  0.00    -0.223 NA
BRANCH   11   16
ATOM     16 C12  LIG L   1      23.502  50.227  18.296  1.00  0.00     0.019 A 
ATOM     17 C13  LIG L   1      25.021  51.609  16.831  1.00  0.00     0.020 A 
ATOM     18 C14  LIG L   1      24.187  50.446  17.028  1.00  0.00     0.013 A 
ATOM     19 C15  LIG L   1      25.158  52.542  17.919  1.00  0.00     0.111 A 
ATOM     20  N4  LIG L   1      24.493  52.321  19.134  1.00  0.00    -0.263 NA
ATOM     21 C16  LIG L   1      23.682  51.212  19.352  1.00  0.00     0.120 A 
ENDBRANCH   11   16
ENDBRANCH    8   10
ENDBRANCH    1    8
BRANCH    5   22
ATOM     22  N5  LIG L   1      16.653  50.581  15.980  1.00  0.00    -0.281 N 
ATOM     23 C17  LIG L   1      15.668  51.550  15.883  1.00  0.00     0.248 C 
ATOM     24  H2  LIG L   1      17.306  50.553  15.243  1.00  0.00     0.155 HD
ATOM     25  O1  LIG L   1      14.665  51.589  16.581  1.00  0.00    -0.270 OA
BRANCH   23   26
ATOM     26 C18  LIG L   1      15.810  52.624  14.853  1.00  0.00     0.037 A 
ATOM     27 C19  LIG L   1      14.820  53.698  14.734  1.00  0.00     0.013 A 
ATOM     28 C20  LIG L   1      16.944  52.588  13.954  1.00  0.00     0.013 A 
ATOM     29 C21  LIG L   1      14.972  54.712  13.720  1.00  0.00     0.002 A 
ATOM     30 C22  LIG L   1      17.090  53.584  12.963  1.00  0.00     0.002 A 
ATOM     31 C23  LIG L   1      16.120  54.657  12.819  1.00  0.00    -0.064 A 
BRANCH   31   32
ATOM     32 C24  LIG L   1      16.351  55.685  11.695  1.00  0.00    -0.043 C 
BRANCH   32   33
ATOM     33  N6  LIG L   1      15.741  57.037  11.869  1.00  0.00     0.380 N 
ATOM     34 C25  LIG L   1      14.246  56.927  12.040  1.00  0.00    -0.097 C 
ATOM     35 C26  LIG L   1      16.352  57.794  13.051  1.00  0.00    -0.097 C 
ATOM     36  H3  LIG L   1      15.944  57.569  11.022  1.00  0.00    -0.082 HD
ATOM     37 C27  LIG L   1      13.589  58.326  12.202  1.00  0.00    -0.098 C 
ATOM     38 C28  LIG L   1      15.719  59.216  13.205  1.00  0.00    -0.098 C 
ATOM     39  N7  LIG L   1      14.204  59.080  13.372  1.00  0.00     0.375 N 
ATOM     40 C29  LIG L   1      13.612  60.411  13.575  1.00  0.00    -0.096 C 
ATOM     41  H4  LIG L   1      13.998  58.523  14.202  1.00  0.00    -0.082 HD
ENDBRANCH   32   33
ENDBRANCH   31   32
ENDBRANCH   23   26
ENDBRANCH    5   22
TORSDOF 7
ENDMDL
MODEL 4
REMARK VINA RESULT:   -10.854      1.609     13.536
REMARK INTER + INTRA:         -15.763
REMARK INTER:                 -14.814
REMARK INTRA:                  -0.950
REMARK UNBOUND:                -0.467
REMARK Flexibility Score: inf
REMARK Active torsions [ 7 ] -> [ 7 ]
ROOT
ATOM      1  C1  LIG L   1      16.965  48.614  17.469  1.00  0.00     0.038 A 
ATOM      2  C2  LIG L   1      15.674  48.362  18.120  1.00  0.00    -0.029 A 
ATOM      3  C3  LIG L   1      14.628  49.329  17.948  1.00  0.00     0.007 A 
ATOM      4  C4  LIG L   1      14.844  50.513  17.154  1.00  0.00     0.024 A 
ATOM      5  C5  LIG L   1      16.096  50.759  16.518  1.00  0.00     0.035 A 
ATOM      6  C6  LIG L   1      17.161  49.784  16.691  1.00  0.00     0.047 A 
ATOM      7  C7  LIG L   1      15.384  47.108  18.977  1.00  0.00     0.045 C 
ENDROOT
BRANCH    1    8
ATOM      8  N1  LIG L   1      18.023  47.711  17.602  1.00  0.00    -0.283 N 
ATOM      9  H1  LIG L   1      18.112  46.969  16.961  1.00  0.00     0.155 HD
BRANCH    8   10
ATOM     10  C8  LIG L   1      18.947  47.848  18.626  1.00  0.00     0.220 A 
ATOM     11  C9  LIG L   1      19.751  47.058  20.724  1.00  0.00     0.077 A 
ATOM     12 C10  LIG L   1      20.768  48.070  20.743  1.00  0.00     0.048 A 
ATOM     13  N2  LIG L   1      18.879  46.986  19.661  1.00  0.00    -0.214 NA
ATOM     14 C11  LIG L   1      20.818  48.960  19.646  1.00  0.00     0.116 A 
ATOM     15  N3  LIG L   1      19.914  48.837  18.614  1.00  0.00    -0.223 NA
BRANCH   11   16
ATOM     16 C12  LIG L   1      19.568  46.047  21.813  1.00  0.00     0.019 A 
ATOM     17 C13  LIG L   1      18.818  43.795  22.670  1.00  0.00     0.020 A 
ATOM     18 C14  LIG L   1      18.972  44.736  21.584  1.00  0.00     0.013 A 
ATOM     19 C15  LIG L   1      19.266  44.187  23.980  1.00  0.00     0.111 A 
ATOM     20  N4  LIG L   1      19.840  45.450  24.188  1.00  0.00    -0.263 NA
ATOM     21 C16  LIG L   1      20.002  46.376  23.162  1.00  0.00     0.120 A 
ENDBRANCH   11   16
ENDBRANCH    8   10
ENDBRANCH    1    8
BRANCH    5   22
ATOM     22  N5  LIG L   1      16.233  51.961  15.732  1.00  0.00    -0.281 N 
ATOM     23 C17  LIG L   1      15.706  52.224  14.479  1.00  0.00     0.248 C 
ATOM     24  H2  LIG L   1      16.768  52.682  16.137  1.00  0.00     0.155 HD
ATOM     25  O1  LIG L   1      15.210  51.380  13.746  1.00  0.00    -0.270 OA
BRANCH   23   26
ATOM     26 C18  LIG L   1      15.748  53.624  13.957  1.00  0.00     0.037 A 
ATOM     27 C19  LIG L   1      17.018  54.332  13.784  1.00  0.00     0.013 A 
ATOM     28 C20  LIG L   1      14.504  54.287  13.630  1.00  0.00     0.013 A 
ATOM     29 C21  LIG L   1      17.029  55.688  13.295  1.00  0.00     0.002 A 
ATOM     30 C22  LIG L   1      14.518  55.616  13.150  1.00  0.00     0.002 A 
ATOM     31 C23  LIG L   1      15.764  56.344  12.974  1.00  0.00    -0.064 A 
BRANCH   31   32
ATOM     32 C24  LIG L   1      15.679  57.796  12.466  1.00  0.00    -0.043 C 
BRANCH   32   33
ATOM     33  N6  LIG L   1      14.409  58.537  12.723  1.00  0.00     0.380 N 
ATOM     34 C25  LIG L   1      14.699  59.920  13.253  1.00  0.00    -0.097 C 
ATOM     35 C26  LIG L   1      13.532  58.627  11.471  1.00  0.00    -0.097 C 
ATOM     36  H3  LIG L   1      13.891  58.010  13.427  1.00  0.00    -0.082 HD
ATOM     37 C27  LIG L   1      13.388  60.702  13.547  1.00  0.00    -0.098 C 
ATOM     38 C28  LIG L   1      12.197  59.386  11.763  1.00  0.00    -0.098 C 
ATOM     39  N7  LIG L   1      12.515  60.781  12.303  1.00  0.00     0.375 N 
ATOM     40 C29  LIG L   1      11.262  61.519  12.525  1.00  0.00    -0.096 C 
ATOM     41  H4  LIG L   1      13.059  61.301  11.614  1.00  0.00    -0.082 HD
ENDBRANCH   32   33
ENDBRANCH   31   32
ENDBRANCH   23   26
ENDBRANCH    5   22
TORSDOF 7
ENDMDL
MODEL 5
REMARK VINA RESULT:   -10.752      1.113      1.629
REMARK INTER + INTRA:         -15.618
REMARK INTER:                 -14.688
REMARK INTRA:                  -0.931
REMARK UNBOUND:                -0.467
REMARK Flexibility Score: inf
REMARK Active torsions [ 7 ] -> [ 7 ]
ROOT
ATOM      1  C1  LIG L   1      16.380  55.571  12.978  1.00  0.00     0.038 A 
ATOM      2  C2  LIG L   1      17.113  55.035  11.825  1.00  0.00    -0.029 A 
ATOM      3  C3  LIG L   1      17.571  53.677  11.885  1.00  0.00     0.007 A 
ATOM      4  C4  LIG L   1      17.315  52.865  13.049  1.00  0.00     0.024 A 
ATOM      5  C5  LIG L   1      16.601  53.381  14.169  1.00  0.00     0.035 A 
ATOM      6  C6  LIG L   1      16.135  54.759  14.114  1.00  0.00     0.047 A 
ATOM      7  C7  LIG L   1      17.411  55.857  10.549  1.00  0.00     0.045 C 
ENDROOT
BRANCH    1    8
ATOM      8  N1  LIG L   1      15.911  56.887  12.980  1.00  0.00    -0.283 N 
ATOM      9  H1  LIG L   1      16.497  57.612  13.295  1.00  0.00     0.155 HD
BRANCH    8   10
ATOM     10  C8  LIG L   1      14.629  57.182  12.542  1.00  0.00     0.220 A 
ATOM     11  C9  LIG L   1      12.976  58.852  12.150  1.00  0.00     0.077 A 
ATOM     12 C10  LIG L   1      12.047  57.859  11.691  1.00  0.00     0.048 A 
ATOM     13  N2  LIG L   1      14.235  58.473  12.557  1.00  0.00    -0.214 NA
ATOM     14 C11  LIG L   1      12.485  56.515  11.685  1.00  0.00     0.116 A 
ATOM     15  N3  LIG L   1      13.758  56.200  12.108  1.00  0.00    -0.223 NA
BRANCH   11   16
ATOM     16 C12  LIG L   1      12.660  60.314  12.219  1.00  0.00     0.019 A 
ATOM     17 C13  LIG L   1      11.123  62.287  11.892  1.00  0.00     0.020 A 
ATOM     18 C14  LIG L   1      11.377  60.868  11.805  1.00  0.00     0.013 A 
ATOM     19 C15  LIG L   1      12.170  63.138  12.395  1.00  0.00     0.111 A 
ATOM     20  N4  LIG L   1      13.400  62.593  12.791  1.00  0.00    -0.263 NA
ATOM     21 C16  LIG L   1      13.673  61.231  12.720  1.00  0.00     0.120 A 
ENDBRANCH   11   16
ENDBRANCH    8   10
ENDBRANCH    1    8
BRANCH    5   22
ATOM     22  N5  LIG L   1      16.375  52.506  15.292  1.00  0.00    -0.281 N 
ATOM     23 C17  LIG L   1      15.556  51.390  15.351  1.00  0.00     0.248 C 
ATOM     24  H2  LIG L   1      16.862  52.729  16.118  1.00  0.00     0.155 HD
ATOM     25  O1  LIG L   1      14.724  51.098  14.505  1.00  0.00    -0.270 OA
BRANCH   23   26
ATOM     26 C18  LIG L   1      15.667  50.475  16.527  1.00  0.00     0.037 A 
ATOM     27 C19  LIG L   1      16.944  49.854  16.889  1.00  0.00     0.013 A 
ATOM     28 C20  LIG L   1      14.483  50.193  17.311  1.00  0.00     0.013 A 
ATOM     29 C21  LIG L   1      17.020  48.961  18.018  1.00  0.00     0.002 A 
ATOM     30 C22  LIG L   1      14.561  49.319  18.418  1.00  0.00     0.002 A 
ATOM     31 C23  LIG L   1      15.814  48.685  18.795  1.00  0.00    -0.064 A 
BRANCH   31   32
ATOM     32 C24  LIG L   1      15.797  47.729  20.003  1.00  0.00    -0.043 C 
BRANCH   32   33
ATOM     33  N6  LIG L   1      17.097  47.112  20.404  1.00  0.00     0.380 N 
ATOM     34 C25  LIG L   1      17.745  47.911  21.508  1.00  0.00    -0.097 C 
ATOM     35 C26  LIG L   1      16.930  45.653  20.839  1.00  0.00    -0.097 C 
ATOM     36  H3  LIG L   1      17.701  47.123  19.582  1.00  0.00    -0.082 HD
ATOM     37 C27  LIG L   1      19.110  47.297  21.926  1.00  0.00    -0.098 C 
ATOM     38 C28  LIG L   1      18.302  45.017  21.234  1.00  0.00    -0.098 C 
ATOM     39  N7  LIG L   1      18.943  45.844  22.349  1.00  0.00     0.375 N 
ATOM     40 C29  LIG L   1      20.206  45.216  22.763  1.00  0.00    -0.096 C 
ATOM     41  H4  LIG L   1      18.327  45.861  23.162  1.00  0.00    -0.082 HD
ENDBRANCH   32   33
ENDBRANCH   31   32
ENDBRANCH   23   26
ENDBRANCH    5   22
TORSDOF 7
ENDMDL
