REMARK Flexibility Score: inf
REMARK Active torsions [ 7 ] -> [ 7 ]
ROOT
ATOM      1  C1  LIG L   1      15.796  54.717  12.374  1.00  0.00     0.038 A 
ATOM      2  C2  LIG L   1      16.901  54.599  11.415  1.00  0.00    -0.029 A 
ATOM      3  C3  LIG L   1      17.870  53.561  11.624  1.00  0.00     0.007 A 
ATOM      4  C4  LIG L   1      17.755  52.662  12.745  1.00  0.00     0.024 A 
ATOM      5  C5  LIG L   1      16.681  52.772  13.675  1.00  0.00     0.035 A 
ATOM      6  C6  LIG L   1      15.697  53.823  13.470  1.00  0.00     0.047 A 
ATOM      7  C7  LIG L   1      17.071  55.531  10.193  1.00  0.00     0.045 C 
ENDROOT
BRANCH    1    8
ATOM      8  N1  LIG L   1      14.823  55.708  12.226  1.00  0.00    -0.283 N 
ATOM      9  H1  LIG L   1      13.944  55.475  11.848  1.00  0.00     0.155 HD
BRANCH    8   10
ATOM     10  C8  LIG L   1      15.080  57.017  12.604  1.00  0.00     0.220 A 
ATOM     11  C9  LIG L   1      14.276  59.252  12.782  1.00  0.00     0.077 A 
ATOM     12 C10  LIG L   1      15.529  59.685  13.329  1.00  0.00     0.048 A 
ATOM     13  N2  LIG L   1      14.100  57.929  12.442  1.00  0.00    -0.214 NA
ATOM     14 C11  LIG L   1      16.539  58.710  13.490  1.00  0.00     0.116 A 
ATOM     15  N3  LIG L   1      16.301  57.402  13.127  1.00  0.00    -0.223 NA
BRANCH   11   16
ATOM     16 C12  LIG L   1      13.113  60.165  12.548  1.00  0.00     0.019 A 
ATOM     17 C13  LIG L   1      11.908  62.365  12.816  1.00  0.00     0.020 A 
ATOM     18 C14  LIG L   1      13.055  61.524  13.071  1.00  0.00     0.013 A 
ATOM     19 C15  LIG L   1      10.826  61.825  12.035  1.00  0.00     0.111 A 
ATOM     20  N4  LIG L   1      10.894  60.516  11.536  1.00  0.00    -0.263 NA
ATOM     21 C16  LIG L   1      11.985  59.684  11.764  1.00  0.00     0.120 A 
ENDBRANCH   11   16
ENDBRANCH    8   10
ENDBRANCH    1    8
BRANCH    5   22
ATOM     22  N5  LIG L   1      16.628  51.830  14.765  1.00  0.00    -0.281 N 
ATOM     23 C17  LIG L   1      15.660  51.720  15.750  1.00  0.00     0.248 C 
ATOM     24  H2  LIG L   1      17.371  51.186  14.816  1.00  0.00     0.155 HD
ATOM     25  O1  LIG L   1      14.797  52.558  15.967  1.00  0.00    -0.270 OA
BRANCH   23   26
ATOM     26 C18  LIG L   1      15.658  50.511  16.629  1.00  0.00     0.037 A 
ATOM     27 C19  LIG L   1      14.496  50.175  17.455  1.00  0.00     0.013 A 
ATOM     28 C20  LIG L   1      16.835  49.670  16.667  1.00  0.00     0.013 A 
ATOM     29 C21  LIG L   1      14.527  49.013  18.308  1.00  0.00     0.002 A 
ATOM     30 C22  LIG L   1      16.862  48.532  17.503  1.00  0.00     0.002 A 
ATOM     31 C23  LIG L   1      15.725  48.177  18.337  1.00  0.00    -0.064 A 
BRANCH   31   32
ATOM     32 C24  LIG L   1      15.854  46.931  19.232  1.00  0.00    -0.043 C 
BRANCH   32   33
ATOM     33  N6  LIG L   1      17.100  46.799  20.044  1.00  0.00     0.380 N 
ATOM     34 C25  LIG L   1      17.269  47.990  20.954  1.00  0.00    -0.097 C 
ATOM     35 C26  LIG L   1      17.118  45.505  20.863  1.00  0.00    -0.097 C 
ATOM     36  H3  LIG L   1      17.882  46.762  19.390  1.00  0.00    -0.082 HD
ATOM     37 C27  LIG L   1      18.573  47.882  21.794  1.00  0.00    -0.098 C 
ATOM     38 C28  LIG L   1      18.438  45.372  21.689  1.00  0.00    -0.098 C 
ATOM     39  N7  LIG L   1      18.592  46.591  22.600  1.00  0.00     0.375 N 
ATOM     40 C29  LIG L   1      19.803  46.441  23.420  1.00  0.00    -0.096 C 
ATOM     41  H4  LIG L   1      17.796  46.648  23.235  1.00  0.00    -0.082 HD
ENDBRANCH   32   33
ENDBRANCH   31   32
ENDBRANCH   23   26
ENDBRANCH    5   22
TORSDOF 7
